*Heading
** Job name: NH Model name: NH
** Generated by: Abaqus/CAE 2018
*Preprint, echo=NO, model=NO, history=NO, contact=NO
**
** PARTS
**
*Part, name=NH
*Node
      1, -0.0500000007,           0., 0.0164589807
      2, -0.0350000001,           0., 0.0500000007
      3, -0.0500000007,           0., 0.0835410208
      4,           0., -0.0500000007, 0.0164589807
      5,           0., -0.0350000001, 0.0500000007
      6,           0., -0.0500000007, 0.0835410208
      7,           0., 0.0500000007, 0.0164589807
      8,           0., 0.0350000001, 0.0500000007
      9,           0., 0.0500000007, 0.0835410208
     10, -0.0500000007, 0.0500000007,           0.
     11, -0.0500000007, -0.0500000007,           0.
     12, -0.0500000007, -0.0500000007,  0.100000001
     13, -0.0500000007, 0.0500000007,  0.100000001
     14, 0.0500000007, -0.0500000007,           0.
     15, 0.0500000007, -0.0500000007,  0.100000001
     16, 0.0500000007, 0.0500000007,  0.100000001
     17, 0.0500000007, 0.0500000007,           0.
     18, 0.0500000007,           0., 0.0835410208
     19, 0.0500000007,           0., 0.0164589807
     20, 0.0350000001,           0., 0.0500000007
** ... 1675 like lines cut
*Element, type=C3D4
   1,  773,  774,  775,  776
   2,  777,  778,  779,  773
   3,  780,  781,  782,  783
   4,  784,  785,  777,  773
   5,  773,  786,  777,  787
   6,  773,  777,  786,  779
   7,  788,  789,  784,  773
   8,  773,  790,  791,  792
   9,  773,  793,  790,  779
  10,  773,  791,  793,  787
  11,  794,  789,  785,  795
  12,  794,  796,  797,  778
  13,  798,  797,  778,  785
  14,  799,  800,  801,  802
  15,  794,  785,  797,  795
  16,  785,  784,  777,  803
  17,  785,  795,  804,  797
  18,  785,  805,  806,  804
  19,  807,  808,  809,  810
  20,  807,  811,  812,  813
** ... 7706 like lines cut
*Nset, nset=_PickedSet12, internal, generate
    1,  1695,     1
*Elset, elset=_PickedSet12, internal, generate
    1,  7726,     1
** Section: Section-1
*Solid Section, elset=_PickedSet12, material=NH
,
*End Part
**  
**
** ASSEMBLY
**
*Assembly, name=Assembly
**  
*Instance, name=NH-1, part=NH
*End Instance
**  
*Nset, nset=Disps_Set, instance=NH-1
  12,  13,  15,  16, 119, 120, 121, 122, 123, 124, 125, 126, 127, 128, 159, 160
 161, 162, 163, 164, 165, 166, 167, 168, 169, 170, 171, 172, 173, 174, 175, 176
 177, 178, 179, 180, 181, 182, 183, 184, 185, 186, 187, 188, 439, 440, 441, 442
 443, 444, 445, 446, 447, 448, 449, 450, 451, 452, 453, 454, 455, 456, 457, 458
 459, 460, 461, 462, 463, 464, 465, 466, 467, 468, 469, 470, 471, 472, 473, 474
 475, 476, 477, 478, 479, 480, 481, 482, 483, 484, 485, 486, 487, 488, 489, 490
 491, 492, 493, 494, 495, 496, 497, 498, 499, 500, 501, 502, 503, 504, 505, 506
 507, 508, 509, 510, 511, 512, 513, 514, 515, 516, 517, 518, 519, 520, 521, 522
 523, 524, 525, 526, 527, 528, 529, 530, 531, 532, 533, 534, 535, 536, 537, 538
*Elset, elset=Disps_Set, instance=NH-1
  142,  320,  338,  645,  931, 1239, 1463, 1654, 1658, 1671, 1674, 1694, 1775, 1825, 1854, 2027
 2063, 2147, 2200, 2237, 2252, 2289, 2291, 2295, 2468, 2482, 2497, 2510, 2521, 2529, 2533, 2556
 2606, 2618, 2624, 2627, 2630, 2632, 2638, 2755, 2829, 2851, 2882, 2884, 2984, 3000, 3170, 3171
 3193, 3248, 3291, 3330, 3335, 3362, 3366, 3380, 3381, 3405, 3406, 3493, 3494, 3496, 3503, 3603
 3605, 3652, 3678, 3680, 3727, 3749, 3750, 3755, 3759, 3766, 3767, 3778, 3779, 3783, 3788, 3789
 3810, 3811, 3819, 3823, 3833, 3839, 3844, 3847, 3850, 3858, 3859, 3862, 3864, 3873, 3880, 3884
 3892, 3893, 3905, 3909, 3911, 3916, 3917, 3925, 3932, 3936, 3937, 3939, 3945, 3951, 3954, 3962
 3964, 3965, 3973, 3975, 3980, 3982, 3984, 3989, 3994, 3999, 4002, 4006, 4007, 4011, 4014, 4018
 4025, 4033, 4034, 4040, 4050, 4053, 4058, 4061, 4065, 4067, 4082, 4087, 4088, 4091, 4094, 4105
 4117, 4118, 4119, 4121, 4123, 4128, 4135, 4136, 4137, 4144, 4149, 4156, 4158, 4166, 4172, 4178
 4184, 4187, 4189, 4192, 4196, 4200, 4204, 4213, 4214, 4228, 4247, 4255, 4262, 4265, 4266, 4270
 4276, 4292, 4295, 4298, 4302, 4313, 4317, 4323, 4332, 4339, 4342, 4343, 4352, 4357, 4358, 4366
 4369, 4378, 4379, 4388, 4401, 4402, 4405, 4425, 4426, 4429, 4443, 4512, 4551, 4629, 4666, 4834
 5569, 5572, 5593, 5595, 5606, 5615, 5694, 5716, 5729, 5846, 5856, 5904, 5913, 5924, 5942, 5947
 5973, 5991, 5999, 6031, 6033, 6035, 6036, 6160, 6165, 6343, 6350, 6414, 6516, 6533, 6676, 6817
 7259, 7608
*Nset, nset=Fixed_Set, instance=NH-1
  10,  11,  14,  17,  99, 100, 101, 102, 103, 104, 105, 106, 107, 108, 139, 140
 141, 142, 143, 144, 145, 146, 147, 148, 189, 190, 191, 192, 193, 194, 195, 196
 197, 198, 209, 210, 211, 212, 213, 214, 215, 216, 217, 218, 591, 592, 593, 594
 595, 596, 597, 598, 599, 600, 601, 602, 603, 604, 605, 606, 607, 608, 609, 610
 611, 612, 613, 614, 615, 616, 617, 618, 619, 620, 621, 622, 623, 624, 625, 626
 627, 628, 629, 630, 631, 632, 633, 634, 635, 636, 637, 638, 639, 640, 641, 642
 643, 644, 645, 646, 647, 648, 649, 650, 651, 652, 653, 654, 655, 656, 657, 658
 659, 660, 661, 662, 663, 664, 665, 666, 667, 668, 669, 670, 671, 672, 673, 674
 675, 676, 677, 678, 679, 680, 681, 682, 683, 684, 685, 686, 687, 688, 689, 690
*Elset, elset=Fixed_Set, instance=NH-1
   97,  213,  362,  734,  767,  789, 1020, 1119, 1125, 1127, 1283, 1300, 1444, 1587, 1626, 1683
 1697, 1712, 1714, 1756, 1771, 1858, 1868, 2045, 2058, 2230, 2344, 2365, 2374, 2420, 2424, 2440
 2450, 2477, 2561, 2577, 2593, 2600, 2708, 2783, 2933, 2953, 2961, 2963, 3025, 3043, 3049, 3059
 3062, 3084, 3224, 3238, 3289, 3294, 3299, 3320, 3417, 3423, 3443, 3530, 3535, 3536, 3539, 3557
 3571, 3721, 3831, 3838, 3870, 3985, 4086, 4479, 4483, 4562, 4565, 4584, 4587, 4588, 4590, 4596
 4606, 4616, 4621, 4683, 4696, 4723, 4729, 4854, 4860, 4869, 4870, 4884, 4893, 4895, 4901, 4908
 4911, 4920, 4924, 4935, 4937, 4938, 4943, 4944, 4958, 4968, 4977, 4978, 4986, 4993, 4996, 4997
 5000, 5004, 5005, 5013, 5016, 5022, 5026, 5038, 5039, 5040, 5043, 5057, 5066, 5072, 5077, 5078
 5092, 5094, 5095, 5100, 5106, 5108, 5110, 5113, 5115, 5116, 5119, 5121, 5123, 5126, 5134, 5137
 5138, 5152, 5153, 5157, 5162, 5165, 5173, 5178, 5181, 5182, 5183, 5185, 5186, 5195, 5199, 5200
 5205, 5212, 5215, 5220, 5224, 5232, 5237, 5250, 5266, 5271, 5291, 5294, 5321, 5325, 5336, 5344
 5349, 5351, 5352, 5358, 5362, 5368, 5372, 5380, 5381, 5383, 5391, 5392, 5396, 5412, 5413, 5415
 5422, 5425, 5427, 5430, 5434, 5443, 5462, 5464, 5468, 5470, 5480, 5486, 5488, 5509, 5538, 5623
 5630, 5633, 5636, 5637, 5669, 5671, 5672, 5780, 5782, 5791, 5808, 5872, 5895, 5935, 5938, 5979
 5992, 5996, 6000, 6085, 6086, 6091, 6093, 6103, 6125, 6137, 6147, 6172, 6256, 6604, 6698, 6864
 7080, 7387
*End Assembly
*Amplitude, name=Amp-1, time=TOTAL TIME, definition=EQUALLY SPACED, fixed interval=0.1
             0.,              1.
** 
** MATERIALS
** 
*Material, name=NH
*Density
1060.,
*Hyperelastic, neo hooke
 3283.5, 6.131e-06
** ----------------------------------------------------------------
** 
** STEP: Tension
** 
*Step, name=Tension, nlgeom=YES
*Dynamic, Explicit
, 0.0002
*Bulk Viscosity
0.06, 1.2
** 
** BOUNDARY CONDITIONS
** 
** Name: Disps Type: Displacement/Rotation
*Boundary, amplitude=Amp-1
Disps_Set, 1, 1
Disps_Set, 2, 2
Disps_Set, 3, 3, 0.05
Disps_Set, 4, 4
Disps_Set, 5, 5
Disps_Set, 6, 6
** Name: Fixed Type: Displacement/Rotation
*Boundary
Fixed_Set, 1, 1
Fixed_Set, 2, 2
Fixed_Set, 3, 3
Fixed_Set, 4, 4
Fixed_Set, 5, 5
Fixed_Set, 6, 6
** 
** OUTPUT REQUESTS
** 
*Restart, write, number interval=1, time marks=NO
** 
** FIELD OUTPUT: F-Output-1
** 
*Output, field, variable=PRESELECT
** 
** HISTORY OUTPUT: H-Output-1
** 
*Output, history, variable=PRESELECT
*End Step
